FoamFile                                                                        
{                                                                               
    object transportProperties;                                                        
    class dictionary;                                                     
    format ascii;                                                               
    version 2.0;                                                                
}                                                                               
                                                                                
// * * * * * * * * * * * * * * * * * * * * * * * * * * * * * * * * * * * * * *//
                                                                                
phase1
{
    transportModel  Newtonian;
    NewtonianCoeffs {}

    rho     rho       [ 1 -3  0  0 0 0 0 ] 1.205;
    nu      nu        [ 0  2 -1  0 0 0 0 ] 1.51037e-05; //mu(Kg/m/s) 1.82e-05 nu=mu/rho
    Cp      Cp        [ 0  2 -2 -1 0 0 0 ] 1012; //heat capacity(J/Kg/K)
    lambda  lambda    [ 1  1 -3 -1 0 0 0 ] 0.025; //thermal conductivity(W/m/K)
    Pr      Pr        [ 0  0  0  0 0 0 0 ] 0.736736; //st prant() Pr=cp*mu/k
    Prt     Prt       [ 0  0  0  0 0 0 0 ] 0.9; //turb prant()

    //T passive/buoyant properties: Boussinesq
    beta    beta      [ 0  0  0 -1 0 0 0 ] 0.003; //thermal expansivity(1/K)
    TRef    TRef      [ 0  0  0  1 0 0 0 ] 293.15;
}

$phase1; //default phase

phaseChange off;
buoyancy   off;
radiation  off;

// * * * * * * * * * * * * * * * * * * * * * * * * * * * * * * * * * * * * * *//
// Process 4.1.2 //
